156
                   
C 2.176080 1.811140 2.980320
Br 3.841900 2.768560 3.447190
C 1.513660 2.547410 1.811400
C 0.159940 1.918750 1.431890
C 0.267690 0.435380 1.392840
C -1.137370 -0.164400 1.032940
C -1.265270 -1.717910 1.371670
C -2.471320 -2.454160 0.747970
C -2.543000 -3.821600 1.334010
O 1.101670 -3.771510 2.738870
C -0.328890 -1.559680 6.042000
H -0.565200 -1.131140 7.000660
C 1.256960 -1.430170 5.643370
H 1.881790 -2.057870 6.330210
C 1.483280 -1.866710 4.242040
H 0.833200 -1.189430 3.664060
C 0.952660 -3.320470 4.092230
H 1.497830 -4.075930 4.663030
C -0.536770 -3.453210 4.541810
H -1.086340 -2.762690 3.878180
C -1.085970 -4.916320 4.416840
H -2.165400 -4.882230 4.582280
H -0.850830 -5.374800 3.474460
O -0.393300 -5.746330 5.345000
H -0.470070 -5.384690 6.232070
O -0.622300 -2.947430 5.920920
O 2.873420 -1.714680 3.807600
H 2.987090 -2.485550 3.156560
O 1.757540 -0.103200 5.703290
H 2.587950 -0.242790 5.197600
O 1.475040 -4.631240 -1.626520
C 1.716590 -5.078830 2.546080
H 2.011240 -5.531060 3.465920
C 3.053090 -4.876810 1.810540
H 3.631260 -5.779820 1.753570
C 2.713510 -4.304610 0.423400
H 2.121260 -3.382180 0.531090
C 1.913780 -5.282880 -0.417620
H 2.479520 -6.234670 -0.589150
C 0.593960 -5.598210 0.426130
H -0.089840 -4.803360 0.387000
C -0.228460 -6.797630 -0.173290
H -1.267180 -6.487060 -0.006740
H -0.177150 -6.824730 -1.235880
O 0.076000 -8.098060 0.362200
H -0.007380 -7.943860 1.344300
O 0.936950 -5.980850 1.766930
O 3.987640 -4.129100 -0.241760
H 3.852220 -4.524210 -1.118360
O 3.992390 -3.951460 2.443710
H 4.623220 -3.622600 1.750630
O 1.514560 -1.397240 -4.477990
C 1.700780 -5.333510 -2.917950
H 1.693790 -6.407720 -2.782810
C 2.982200 -4.816740 -3.615380
H 2.961860 -5.258910 -4.607370
C 2.940640 -3.309410 -3.886440
H 3.068260 -2.793920 -2.922890
C 1.692380 -2.808390 -4.571970
H 1.719530 -3.149940 -5.597660
C 0.374930 -3.509880 -4.005890
H 0.107400 -2.996960 -3.106370
C -0.827030 -3.326190 -4.949910
H -1.727210 -3.639390 -4.380570
H -0.820830 -2.325000 -5.231530
O -0.746850 -4.291220 -6.083550
H -0.834250 -5.218920 -5.717850
O 0.547930 -4.895210 -3.698520
O 4.048530 -3.186760 -4.762040
H 4.067100 -2.208480 -4.976010
O 4.098110 -5.214500 -2.923990
H 4.953780 -4.947620 -3.411460
O 0.810880 2.926580 -3.894750
C 1.924110 -0.696140 -5.728210
H 2.277300 -1.280040 -6.567390
C 3.084600 0.301490 -5.461200
H 3.437920 0.724540 -6.425210
C 2.637130 1.471990 -4.532920
H 2.394500 0.887660 -3.610110
C 1.326380 2.146630 -4.997800
H 1.441190 2.700110 -5.885510
C 0.289620 1.040470 -5.226900
H 0.042670 0.466520 -4.289400
C -1.079200 1.558190 -5.699690
H -1.877620 0.738780 -5.540350
H -1.384440 2.427090 -5.121470
O -1.042870 1.907610 -7.109980
H -0.624400 1.139860 -7.638790
O 0.774400 0.049710 -6.185740
O 3.620350 2.452760 -4.390080
H 3.257780 3.138120 -3.796390
O 4.159000 -0.495490 -4.861760
H 4.948710 0.169950 -4.789070
O -1.752550 4.894760 -0.786640
C 0.799900 4.357490 -4.163600
H 1.296110 4.603930 -5.151610
C 1.444140 5.012290 -2.919920
H 1.543820 6.142490 -3.166730
C 0.491740 4.870880 -1.730740
H 0.581770 3.828840 -1.517420
C -0.960150 5.315680 -1.930560
H -0.941420 6.374850 -2.001290
C -1.519390 4.684640 -3.275290
H -1.661730 3.634670 -3.095610
C -2.823040 5.434550 -3.614860
H -3.256650 4.965450 -4.527150
H -3.557200 5.489910 -2.725810
O -2.496010 6.759040 -3.984980
H -1.721590 6.634500 -4.553350
O -0.570460 4.908720 -4.304810
O 1.108440 5.557780 -0.710650
H 0.460610 5.894430 -0.012960
O 2.649620 4.372590 -2.612500
H 2.999160 4.548960 -1.690460
O -2.540280 2.959280 3.160960
C -2.836030 5.633470 -0.176740
H -3.232480 6.452250 -0.829540
C -2.367920 6.271100 1.153870
H -3.316300 6.840440 1.450740
C -1.930350 5.193780 2.196270
H -1.016260 4.711090 1.801000
C -2.999490 4.110890 2.346460
H -3.878380 4.528380 2.849430
C -3.489810 3.632810 0.975590
H -2.613490 3.173500 0.506270
C -4.608830 2.502180 0.894410
H -5.460230 2.770790 1.532480
H -5.088840 2.541610 -0.097090
O -4.169420 1.216670 1.353300
H -4.061190 1.313030 2.312590
O -3.885350 4.731890 0.097650
O -1.684150 5.876350 3.433330
H -1.565220 5.174490 4.119260
O -1.290280 7.195770 0.905530
H -1.258440 7.698600 1.780250
O -1.102100 -0.871150 5.064110
C -3.161990 2.878160 4.480920
H -3.818800 3.708710 4.670430
C -2.003810 2.932210 5.516660
H -2.356820 2.972490 6.571900
C -1.149700 1.649560 5.333430
H -0.672680 1.651480 4.339140
C -1.927600 0.279780 5.424260
H -2.344910 0.186000 6.455030
C -3.190160 0.350070 4.547260
H -2.906580 0.243070 3.500670
C -4.158700 -0.765790 5.009090
H -5.010540 -0.805220 4.282020
H -3.793130 -1.830120 4.985940
O -4.646580 -0.320480 6.265580
H -4.958580 0.609950 6.161040
O -3.928520 1.625240 4.593690
O -0.223660 1.628200 6.404140
H 0.421380 0.842320 6.381590
O -1.068290 4.074860 5.352710
H -0.295120 3.732820 5.912680
