858
                   
C 14.787380 -6.108040 -0.132270
C 14.602050 -4.646040 -0.131340
C 14.728240 -6.643950 1.210610
C 13.182700 -4.182800 0.222290
C 15.783230 -6.216740 2.096320
C 12.583620 -4.957060 1.434250
C -5.082220 -1.389650 6.903670
C -4.026560 -2.357750 7.317580
C -6.456330 -1.822600 7.376190
C -2.627490 -1.859270 6.988750
C -7.443800 -0.812400 6.765860
C -1.552880 -2.651030 7.649090
C -2.058340 7.081330 -7.891550
C -3.384460 7.496790 -7.271960
C -2.160210 5.827120 -8.840950
C -3.368420 8.790590 -6.612320
C -0.795060 5.440620 -9.486830
C -4.836680 9.142990 -6.405610
C -13.705940 12.735140 -6.143430
C -12.582020 12.960650 -5.063780
C -13.132130 13.209880 -7.480250
C -12.201260 14.464240 -5.020750
C -14.060970 12.590540 -8.587290
C -13.432970 15.374670 -5.166970
C 13.497600 -7.148200 -13.424790
C 12.041960 -7.251140 -13.528900
C 14.182880 -7.094980 -14.769090
C 11.427610 -7.151930 -12.171240
C 13.782690 -8.165920 -15.854630
C 9.946460 -6.907840 -12.333290
C 5.010750 12.579780 4.544580
C 5.319880 11.788350 5.863700
C 6.275620 13.208000 3.945160
C 4.081850 11.194000 6.555910
C 7.321290 12.103630 3.510390
C 3.342450 12.332060 7.210560
C 14.832970 -0.311150 8.313930
C 14.472420 -1.440250 9.284930
C 16.318710 -0.115080 7.906800
C 13.007910 -1.231050 9.761490
C 16.619680 0.844590 6.799210
C 12.054290 -1.163370 8.570310
C 5.160240 -5.269280 14.029450
C 4.442080 -4.794530 12.753880
C 4.461510 -4.902500 15.369820
C 4.715110 -3.364810 12.386720
C 5.154930 -5.350020 16.708100
C 4.270540 -3.000240 10.925600
C -2.265010 -4.512670 11.124220
C -3.701340 -4.524620 11.714030
C -1.131860 -4.368380 12.112320
C -4.742290 -4.467560 10.575060
C 0.018850 -3.543350 11.506840
C -6.096430 -4.324550 11.293860
C 8.831470 8.456490 -8.647870
C 8.174840 9.053270 -7.368350
C 9.708960 9.515960 -9.296800
C 7.661130 7.972620 -6.471120
C 10.164380 9.070430 -10.707830
C 6.888440 8.593190 -5.267470
C 13.902850 7.645200 -12.784860
C 13.943760 6.419240 -13.675460
C 13.808830 8.954060 -13.577280
C 14.811580 5.363700 -12.921800
C 13.733880 10.190920 -12.714220
C 14.211800 5.053270 -11.548870
C -14.669410 12.847800 6.356900
C -13.968870 11.532390 6.545260
C -15.687610 13.233430 7.476820
C -13.084670 11.356610 5.365420
C -15.021450 13.346830 8.828120
C -11.745310 11.978180 5.619360
C 9.361070 2.553820 8.717840
C 9.953210 2.612740 10.122060
C 9.822270 1.379970 7.930250
C 11.369760 2.118880 10.236670
C 8.817550 0.251250 8.044850
C 11.697720 1.807440 11.726850
C 5.576490 2.606110 -7.316600
C 5.263770 3.596690 -6.247320
C 5.362230 3.119030 -8.715510
C 5.823950 3.156280 -4.951170
C 3.943050 3.520120 -9.154390
C 5.208120 4.106710 -3.890340
C 13.428560 11.567500 -3.660070
C 12.154000 12.446830 -3.805760
C 12.989420 10.109100 -3.266590
C 12.281530 13.985900 -3.840090
C 14.148910 9.203280 -2.829340
C 13.575320 14.455130 -4.655710
C -5.210470 12.135920 -3.769930
C -4.136220 12.065060 -2.641690
C -6.594220 12.435750 -3.180310
C -3.926370 13.427000 -1.956690
C -6.933200 11.158700 -2.437510
C -2.838600 13.358260 -0.810970
C 4.529890 -2.559510 -10.428450
C 5.580020 -1.577700 -9.916670
C 3.503540 -2.932310 -9.380480
C 6.721060 -1.544620 -10.945350
C 2.621560 -4.128420 -9.596490
C 7.762970 -0.570960 -10.387240
C 8.221690 11.611600 10.651560
C 9.564930 11.964850 10.008890
C 7.116190 11.872150 9.572790
C 10.674490 12.245350 11.052280
C 7.009650 13.422290 9.251650
C 12.066500 12.522000 10.375430
C -6.495940 11.635920 11.002490
C -7.332260 11.184980 12.214690
C -4.953340 11.674460 11.117330
C -8.826030 11.648660 12.022480
C -4.432210 12.249900 12.406290
C -9.680080 11.105550 13.132210
C 6.854600 -6.616120 -15.059500
C 7.309640 -7.141470 -16.406400
C 5.349990 -6.337070 -14.932350
C 8.887990 -7.018600 -16.420450
C 4.969450 -5.539580 -13.673720
C 9.661610 -7.552240 -17.588930
C 10.165590 15.298390 3.684610
C 11.117760 16.174270 2.820060
C 10.559820 15.155620 5.186540
C 12.423240 15.352130 2.623740
C 9.485650 14.661170 6.154000
C 13.416400 16.337930 2.039980
C 4.028420 8.842410 9.925640
C 3.422690 7.500830 9.627000
C 3.057350 9.891560 10.511500
C 3.068810 6.722500 10.825920
C 3.817030 10.998240 11.185130
C 2.278050 5.429980 10.507600
C 1.923420 -9.248320 -9.020380
C 2.871360 -8.130050 -8.527350
C 1.730600 -10.322140 -8.042570
C 4.399370 -8.366940 -8.804270
C 0.893270 -11.379300 -8.647460
C 4.480970 -8.602830 -10.391690
C 10.238730 -11.832480 -2.461240
C 10.660070 -10.636470 -3.403890
C 10.813230 -13.152150 -2.913160
C 10.205480 -9.328110 -2.717630
C 12.319750 -13.092530 -3.072150
C 11.060650 -8.124640 -3.171670
C -3.590780 -6.386290 -15.641350
C -4.862290 -6.817710 -16.356090
C -3.914680 -5.279520 -14.664930
C -4.669790 -8.048250 -17.221030
C -2.879150 -4.923840 -13.618160
C -5.674630 -8.040800 -18.373180
C -6.911990 3.900350 -14.077570
C -6.878070 3.443460 -12.613610
C -6.333690 2.903580 -15.131400
C -7.755110 2.200100 -12.462170
C -6.751830 3.423970 -16.525180
C -9.171200 2.504470 -12.939060
C -2.526680 12.054470 -9.198580
C -3.596610 10.967980 -9.372690
C -1.453910 11.707610 -8.187430
C -4.446960 11.123840 -10.654360
C -0.200120 12.645780 -8.106680
C -5.357570 12.380140 -10.702770
C 13.015240 -10.068170 11.245780
C 11.530640 -9.776100 11.143460
C 13.500100 -10.583430 12.596560
C 11.282670 -9.204470 9.744100
C 13.567240 -9.501440 13.592150
C 9.995620 -8.350170 9.521100
C 1.634230 3.865500 6.837790
C 0.123710 3.527700 6.694260
C 2.567760 2.729170 7.046410
C -0.759080 4.770100 6.995340
C 4.042770 3.209200 7.292850
C -2.202680 4.361950 7.344390
C 11.252230 6.804320 -1.146050
C 9.920290 6.303440 -1.603450
C 11.145500 7.339120 0.301410
C 10.080600 5.569560 -2.971480
C 12.452050 7.747480 0.896520
C 8.679070 5.297380 -3.540820
C 6.347340 4.681900 12.079580
C 5.274090 3.694100 12.576420
C 7.572460 4.594130 12.987810
C 5.762670 2.350180 12.770520
C 8.605970 5.630580 12.438200
C 6.114380 1.612370 11.480910
C -9.255740 -5.508990 14.635040
C -8.663640 -4.390860 13.798330
C -8.805420 -6.902360 14.103220
C -8.953590 -3.013560 14.366280
C -7.321320 -6.934210 13.896710
C -7.909540 -1.980480 13.912580
C 11.143640 -14.321980 8.952070
C 10.590090 -15.091060 10.106680
C 12.498570 -14.869050 8.492190
C 11.670020 -15.300360 11.115670
C 13.153200 -14.055040 7.326180
C 11.971390 -13.915760 11.727380
C 9.019140 11.291160 -0.860920
C 8.102330 10.179900 -0.415320
C 9.549500 12.177920 0.285900
C 7.677120 9.321970 -1.619600
C 10.669170 13.027580 -0.367070
C 6.789590 8.244080 -1.152770
C -1.536130 -7.317230 7.127170
C -1.213820 -6.386900 5.990770
C -0.617290 -7.256320 8.405680
C -2.432880 -6.357480 4.962010
C -1.032780 -8.065130 9.593980
C -3.604590 -5.605790 5.621300
C -4.947040 -14.392040 -3.995620
C -5.084750 -15.548680 -5.076140
C -3.915510 -13.289250 -4.338070
C -3.773040 -16.029010 -5.548560
C -4.012470 -12.185100 -3.216520
C -3.948770 -17.143360 -6.504940
C 0.421890 -2.853010 0.309240
C -1.010030 -2.436040 0.575650
C 1.331800 -1.573940 0.137730
C -2.057130 -3.575890 0.514760
C 2.672990 -2.036220 -0.491440
C -1.949100 -4.486250 1.702780
C -2.244000 -13.425270 -9.193640
C -1.521550 -13.461270 -10.590800
C -3.052560 -14.749960 -9.128170
C -2.137200 -14.573490 -11.412150
C -4.135340 -15.047760 -10.191230
C -1.458840 -14.770310 -12.759450
C 1.512450 -14.811430 7.281390
C 1.501960 -13.324200 6.987320
C 0.327070 -15.401610 6.608520
C 2.264240 -12.538100 8.081250
C 0.039870 -16.766560 7.119530
C 1.765240 -11.065200 8.191370
C 9.140800 -13.066780 15.085340
C 10.467230 -12.275210 15.236200
C 9.307220 -14.544840 15.355160
C 10.368230 -10.736530 15.367090
C 10.012520 -14.763740 16.768510
C 9.119730 -10.415340 16.269960
C 10.809790 -6.883430 4.703780
C 9.820980 -5.677380 4.889480
C 12.012110 -6.792070 5.588390
C 8.499690 -6.013520 4.245020
C 13.042050 -5.818280 5.097030
C 7.533020 -4.809510 4.117690
C -5.874210 14.865770 1.014440
C -6.003880 13.350750 1.319670
C -4.922600 15.523600 1.954150
C -6.731270 13.164130 2.666500
C -4.574640 16.984510 1.619450
C -7.154880 11.755930 2.954340
C -14.406350 14.323410 13.158810
C -15.429870 14.688370 14.176500
C -13.059110 15.073990 13.397310
C -16.895510 14.579910 13.751510
C -11.840300 14.614970 12.589630
C -17.786560 15.074630 14.829860
C 4.489990 4.851160 -15.143680
C 4.836280 5.960020 -14.070160
C 4.841090 5.170460 -16.578970
C 4.418310 5.497700 -12.693900
C 4.463840 4.227470 -17.681680
C 2.823570 5.305240 -12.737950
C -3.897860 -11.587500 -13.093120
C -5.380650 -11.752420 -12.977070
C -3.463370 -10.255370 -13.806960
C -5.789720 -10.360290 -12.507920
C -1.971290 -10.154290 -14.058300
C -5.445910 -9.121050 -13.394330
C -0.426370 -8.366620 0.677280
C -1.499440 -8.368480 1.744840
C 0.171480 -6.949310 0.318710
C -2.063460 -9.793420 2.096250
C 1.276920 -7.177720 -0.733580
C -2.903100 -9.790410 3.354660
C 2.252180 14.224610 -12.924000
C 3.159500 13.063780 -13.016840
C 1.892570 14.568130 -11.494580
C 4.459660 13.235870 -12.144400
C 3.051140 14.745610 -10.497980
C 5.229250 11.954370 -11.960010
C -13.768370 -8.801970 9.218550
C -12.426700 -8.108450 9.541790
C -13.537300 -9.619530 7.956010
C -12.352960 -7.285790 10.885920
C -13.291430 -8.786260 6.765020
C -10.899760 -6.808120 11.003200
C -6.874600 -11.150620 -8.003960
C -8.098420 -12.070100 -8.049870
C -7.019230 -9.948950 -7.054920
C -7.771450 -13.153100 -9.099400
C -5.664830 -9.154990 -7.021500
C -8.610870 -14.441460 -8.900200
C 1.994940 -6.641280 3.984140
C 1.767830 -8.117560 4.338520
C 3.344960 -6.144790 4.368790
C 2.876050 -8.888230 3.663710
C 4.350480 -6.705790 3.346690
C 2.931680 -10.345450 4.029870
C -2.165660 1.382460 -11.955070
C -2.959540 0.626180 -13.058820
C -0.703720 1.663300 -12.368500
C -4.261930 0.000840 -12.469520
C 0.140720 2.544890 -11.430830
C -4.803750 -0.784240 -13.618140
C 10.319190 13.623540 -9.647600
C 11.104740 12.957640 -8.509480
C 8.912160 14.048230 -9.118990
C 12.581410 12.694420 -8.867280
C 8.170400 14.904890 -10.227730
C 13.305940 12.151670 -7.692910
C 15.491310 -4.663490 11.630880
C 14.275030 -5.645270 11.571520
C 15.300000 -3.552270 12.659420
C 14.371610 -6.564340 10.377730
C 16.556610 -2.658830 12.567110
C 14.228160 -5.656880 9.149020
C -10.519990 -1.054670 9.040910
C -11.362620 -1.992870 8.141320
C -10.835500 -1.160470 10.503800
C -10.877140 -1.907880 6.728760
C -11.067770 -2.619250 10.902370
C -11.925620 -2.500860 5.735710
C -13.673800 7.516480 14.773140
C -13.147350 8.699640 15.570790
C -12.637390 6.389600 14.857450
C -14.127430 9.867200 15.499670
C -11.572500 6.565030 13.877350
C -13.332540 11.190670 15.699370
C 13.359140 -3.915860 -9.287920
C 14.708550 -3.272180 -9.746180
C 12.561180 -2.942790 -8.376810
C 15.476810 -2.449290 -8.686780
C 11.137390 -3.383260 -7.952110
C 14.686200 -1.252050 -8.128310
C -6.069920 7.440690 -10.558340
C -7.223630 6.547460 -9.903390
C -6.317580 7.638430 -12.054260
C -6.775600 5.984390 -8.513330
C -5.029120 8.020740 -12.845250
C -7.859920 5.090060 -7.962180
C 7.680410 -6.222950 -1.642280
C 7.322250 -5.943340 -3.137880
C 7.349330 -4.923260 -0.889910
C 5.783110 -5.729390 -3.310330
C 5.794370 -4.707380 -0.881010
C 5.228440 -4.543310 -2.474260
C 1.659840 14.746070 10.448630
C 1.671130 13.992910 11.742140
C 2.760820 15.781810 10.481500
C 0.481100 13.104830 12.004960
C 4.153030 15.150210 10.478380
C -0.735220 14.044820 12.228130
C 10.576560 3.116990 -7.758840
C 11.208830 2.810270 -9.167950
C 9.883680 4.454230 -7.733390
C 12.717780 2.737580 -9.108680
C 8.844440 4.482120 -8.893210
C 13.161320 3.878000 -8.146440
C -8.271760 -7.902280 -2.907440
C -7.679090 -7.262580 -4.146250
C -9.740840 -8.114340 -3.112670
C -8.284820 -5.875500 -4.400530
C -10.608930 -7.921910 -1.817190
C -7.690890 -4.812970 -3.447670
C -13.985540 4.539570 9.965610
C -13.112310 3.370300 9.382100
C -15.431580 4.254000 9.892050
C -11.662000 3.710210 9.598530
C -15.980110 3.981650 8.535180
C -10.720540 2.767920 8.791250
C -5.881000 3.976860 -4.281600
C -6.274240 5.199750 -3.510750
C -4.877290 3.035800 -3.567350
C -7.032970 4.829360 -2.204450
C -3.547540 3.678050 -3.223400
C -7.477970 6.063650 -1.495880
C 5.944190 -13.566040 4.233020
C 6.191680 -13.115410 2.758620
C 4.909800 -14.736070 4.350370
C 6.327790 -14.296830 1.848110
C 3.772840 -14.483550 3.436160
C 5.120700 -15.206070 1.895610
C 14.984100 -9.934190 -5.304280
C 14.262630 -8.645850 -5.443330
C 14.876300 -10.425780 -3.896280
C 14.379060 -8.275780 -6.939920
C 15.837550 -11.520990 -3.571120
C 13.349640 -7.199010 -7.313300
C 0.916620 1.880570 -6.991920
C 0.992390 2.396140 -5.586730
C 0.903190 0.363030 -6.859900
C 0.808320 3.866620 -5.569540
C 1.365320 -0.255980 -8.182960
C 1.061850 4.433310 -4.114440
C 14.824440 8.488430 -8.697600
C 14.115820 8.455060 -7.369630
C 16.362100 8.495140 -8.424530
C 12.621690 8.173500 -7.504200
C 17.155410 8.436850 -9.683030
C 12.133130 8.042880 -6.053700
C -14.660420 6.827810 0.559160
C -13.617660 6.785470 1.706800
C -14.232140 7.004140 -0.909970
C -12.983330 5.441350 1.810510
C -13.239720 5.819370 -1.182780
C -12.211370 5.139400 0.495480
C 4.060020 1.749730 1.160260
C 5.296330 1.699290 0.243670
C 3.652790 3.067150 1.734580
C 5.714910 0.373340 -0.122350
C 2.202560 2.928870 2.353200
C 6.236100 -0.240350 1.111550
C -6.331550 1.689260 13.132120
C -7.144060 2.153840 14.356360
C -7.237380 1.503730 11.967920
C -7.343040 3.661510 14.323410
C -6.850650 0.392330 10.959150
C -8.263810 3.960270 15.488900
C -3.723630 -0.378640 -8.248050
C -2.686810 0.580700 -7.762840
C -3.227700 -1.819020 -8.409240
C -3.248070 1.925810 -7.326470
C -2.247270 -2.040110 -9.570720
C -4.420970 2.286850 -8.218080
C 2.705770 7.318660 2.669850
C 1.467850 8.105140 3.021820
C 3.927560 7.370800 3.590780
C 0.903700 7.681120 4.395900
C 5.228620 6.582770 3.238810
C 1.591090 8.163550 5.634640
C 2.762430 -2.288540 6.031910
C 2.233170 -2.676170 4.606890
C 4.105260 -1.702050 6.114100
C 2.291270 -1.379830 3.793410
C 4.525010 -1.332430 7.573090
C 1.509540 -0.314790 4.466840
C -6.680430 -10.328490 0.971070
C -7.106930 -11.784690 0.903250
C -5.878910 -9.888730 -0.219710
C -8.110150 -12.026700 -0.242510
C -5.263730 -8.477840 -0.091570
C -9.335320 -11.125290 -0.265900
C 14.076930 -13.416670 -15.542980
C 15.572940 -13.755900 -15.656110
C 13.455860 -13.303980 -16.975400
C 15.811080 -15.025550 -16.377250
C 11.884820 -13.232900 -16.885390
C 17.197910 -15.532670 -16.329230
C 11.121240 -3.334980 -13.700800
C 10.948080 -1.860470 -13.663310
C 10.807250 -3.960890 -15.016090
C 11.557750 -1.275690 -12.363600
C 12.023470 -3.934840 -15.973170
C 11.416130 0.260160 -12.345830
C 13.409530 -0.870610 3.490290
C 12.219780 -0.495160 4.213010
C 14.142550 -1.846170 4.457090
C 11.089910 -1.521310 3.819480
C 15.234810 -2.648920 3.703540
C 9.776940 -1.478120 4.571580
C 15.491990 -0.319940 -13.818750
C 15.762220 1.136490 -14.252330
C 16.787190 -1.098090 -13.358220
C 15.929870 1.880290 -12.924730
C 16.692270 -2.606550 -13.793080
C 17.384440 1.908350 -12.513780
C -14.630120 -7.956420 -11.025520
C -13.107390 -8.083110 -11.107940
C -15.244070 -9.309010 -10.929940
C -12.375560 -6.791880 -11.357740
C -15.534470 -9.870190 -12.369600
C -12.427700 -6.313800 -12.764240
C -8.988550 8.252780 3.955010
C -10.304820 8.225840 4.819390
C -9.172560 7.746510 2.505580
C -11.003130 6.929760 5.101050
C -7.948490 7.958150 1.595940
C -10.351250 6.069060 6.240950
C 8.747040 8.732250 -15.025900
C 9.170750 7.894760 -16.310320
C 9.167700 10.142460 -15.014670
C 8.328950 6.646240 -16.652110
C 8.574380 10.896680 -13.776740
C 8.795350 6.054090 -17.932980
C -1.839450 12.284280 2.571600
C -2.018500 12.482670 4.073240
C -0.345200 12.403120 2.368110
C -3.400890 12.496190 4.638480
C 0.406750 11.549020 3.324010
C -3.615090 13.361800 5.945270
C -0.054000 -3.602920 -4.161480
C -0.785430 -2.478420 -4.970110
C 0.572210 -4.439800 -5.244790
C -1.481320 -1.413270 -4.212990
C 1.458550 -5.633740 -4.809390
C -0.476390 -0.571760 -3.418190
C -10.327790 -2.025190 -13.471430
C -9.598590 -1.857200 -14.758480
C -9.418500 -1.911130 -12.276730
C -8.752920 -0.591960 -14.644800
C -9.726980 -2.944080 -11.265910
C -7.907910 -0.388200 -15.905610
C -13.673960 -11.691870 2.030720
C -13.378370 -11.849950 3.514400
C -12.708990 -10.809210 1.342830
C -14.716530 -12.331180 4.201470
C -13.249580 -10.168610 0.079590
C -14.432030 -13.023950 5.566340
C 5.830830 -11.887580 -4.334010
C 6.820530 -12.952050 -4.214800
C 6.267210 -10.759930 -5.148650
C 6.495510 -14.004700 -3.129070
C 6.254830 -11.085150 -6.641160
C 7.599330 -15.140210 -3.124060
C -6.470770 -8.706240 10.523220
C -5.402040 -8.364860 9.453570
C -6.833450 -10.243320 10.658180
C -5.833630 -8.819720 8.038370
C -7.661770 -10.682280 9.385860
C -7.378420 -8.683400 7.805800
C 12.830670 10.782770 15.450570
C 12.679820 10.763370 16.996890
C 13.507950 9.513020 14.860390
C 14.073100 10.829040 17.577070
C 13.658110 9.588880 13.351150
C 14.117220 10.290840 19.008630
C 9.144960 10.485810 15.535410
C 8.397400 9.299490 14.961370
C 8.211790 11.523740 16.188430
C 7.089410 9.529160 14.325890
C 8.933050 12.835290 16.578220
C 6.445940 8.200340 13.826630
C -11.430030 -14.143290 9.738830
C -12.883580 -14.552560 9.252480
C -10.437080 -14.353520 8.672240
C -13.928260 -14.043860 10.189050
C -10.360180 -15.745270 8.230900
C -15.431670 -14.129610 9.873260
C 0.650760 15.458310 -4.716500
C -0.109170 16.454500 -5.672060
C -0.264050 14.464870 -4.078490
C 0.707900 17.729500 -5.834210
C 0.480220 13.448530 -3.210150
C 0.919430 18.342160 -4.501440
C -9.970300 -1.648800 -6.255080
C -8.459690 -1.386520 -6.097330
C -10.349780 -2.318370 -7.537510
C -8.078400 -0.859310 -4.765700
C -11.880250 -2.354200 -7.726590
C -6.586320 -0.534600 -4.668350
C -2.004990 2.433860 3.579170
C -2.074220 2.700680 2.049510
C -2.846570 1.320970 4.007850
C -1.565200 1.510430 1.224040
C -2.501330 -0.003430 3.343320
C -1.422450 1.801860 -0.268890
C -5.438310 5.410360 10.567000
C -5.690050 4.281800 9.707850
C -4.232410 5.090710 11.487990
C -6.907990 4.348480 8.734580
C -3.875500 6.129990 12.548950
C -6.901800 3.243740 7.717140
C 11.329090 -10.552630 -12.844390
C 10.394350 -10.615640 -14.020000
C 11.829060 -11.901440 -12.329230
C 9.004380 -11.115310 -13.801490
C 12.985110 -11.887460 -11.347740
C 8.066930 -10.175030 -13.071640
C -2.818570 0.609870 12.281870
C -2.743980 -0.744710 12.973550
C -2.166240 0.495300 10.916000
C -3.535410 -0.760500 14.263470
C -2.443920 1.801700 10.137330
C -3.323820 -2.081510 15.051220
C 12.784030 -13.160160 -7.444420
C 13.701100 -13.501900 -6.360350
C 11.865760 -14.359180 -7.721610
C 14.780920 -14.450570 -6.801350
C 10.910100 -14.677300 -6.654390
C 15.719740 -13.799590 -7.907190
C 10.436860 -11.141740 6.136800
C 8.986250 -10.972740 6.517170
C 10.658530 -12.070340 4.916770
C 8.181940 -9.987130 5.572520
C 12.151000 -11.974740 4.460350
C 6.699560 -9.913300 5.968230
C 7.809430 9.007720 7.320950
C 8.439920 9.764410 6.209430
C 7.816550 7.470160 7.351900
C 9.996920 9.804020 6.374970
C 7.314530 6.883430 8.671000
C 10.843780 10.427220 5.265410
C -5.661260 9.454460 7.947000
C -5.643910 7.858860 7.901800
C -7.128200 9.885300 7.908570
C -6.122420 7.409840 6.477560
C -7.255500 11.243870 7.227050
C -5.102980 7.804320 5.316420
C 14.552250 2.843560 -2.270120
C 14.427370 1.367100 -1.866810
C 13.428880 3.260880 -3.133270
C 14.970770 1.033330 -0.426310
C 13.665810 4.486750 -3.963800
C 15.004150 -0.448250 -0.149580
C -8.150940 3.033220 3.263220
C -6.653230 3.317270 3.245610
C -8.700060 2.462110 4.552610
C -6.335240 3.723160 1.851440
C -10.217560 2.503370 4.405340
C -6.137760 2.493970 0.942070
C 11.074140 0.665780 0.120040
C 9.830430 1.460510 0.093620
C 11.053900 -0.644290 -0.708230
C 9.806380 2.378680 1.209340
C 9.830740 -1.483310 -0.346010
C 8.524060 3.124960 1.161380
C 1.694750 -6.038430 -15.282590
C 1.206060 -4.650000 -14.914570
C 1.933360 -6.129930 -16.774470
C 1.326780 -4.692110 -13.393950
C 0.780550 -5.529950 -17.554930
C 0.832170 -3.321910 -12.943910
C -9.376280 9.602750 -7.931330
C -9.303300 11.013440 -7.405690
C -10.746780 9.184130 -8.348420
C -7.950280 11.793680 -7.518620
C -10.707430 7.659220 -8.335730
C -7.970760 13.213900 -6.940040
C -4.274040 -6.871100 -10.179520
C -4.456490 -5.362470 -9.924160
C -2.805030 -7.320180 -10.279250
C -5.918310 -4.944630 -10.027340
C -2.542720 -8.796350 -10.129910
C -6.409450 -5.047350 -11.495120
C -14.343020 2.020290 12.669930
C -13.135990 1.130470 12.629210
C -14.770790 2.340690 14.141520
C -12.121750 1.916600 13.442730
C -15.854770 3.553350 14.277810
C -10.763660 1.259450 13.521460
C 3.843260 12.062020 -3.279700
C 3.426390 10.950920 -2.286160
C 4.746570 13.108510 -2.589000
C 3.050660 9.640490 -3.016430
C 4.233220 13.744000 -1.323550
C 1.774900 9.627610 -3.903180
C -11.326560 -11.952670 13.586870
C -9.849880 -12.046080 13.807400
C -11.600160 -10.758860 12.738990
C -9.019110 -12.865540 12.741880
C -13.094210 -10.717060 12.250320
C -7.598320 -12.939490 13.193700
C 13.477760 -2.089650 -4.385530
C 12.059600 -1.520560 -4.361140
C 13.484460 -3.407630 -3.649050
C 11.954970 0.006730 -4.799100
C 13.201950 -4.572990 -4.591900
C 10.621940 0.543290 -4.524130
C -4.011460 -7.000780 -4.338300
C -2.552480 -7.329100 -4.327130
C -4.228380 -5.538990 -3.993140
C -2.373340 -8.786670 -4.553320
C -3.760030 -5.235100 -2.538590
C -0.977920 -9.366300 -4.763280
C 12.773590 4.193070 4.280420
C 14.203150 4.216060 3.721980
C 12.232440 5.608610 4.048390
C 14.751850 2.805490 3.568680
C 11.057060 6.140960 4.858550
C 16.108160 2.920650 2.784390
C -12.304010 0.733560 -3.560310
C -10.910550 1.222890 -3.330220
C -12.492850 0.208370 -4.954330
C -10.720860 1.545920 -1.867560
C -13.941480 -0.208520 -5.114580
C -9.217930 1.616880 -1.569340
C 3.841810 8.978870 -7.803440
C 4.174050 10.469990 -8.072320
C 3.285050 8.233610 -9.032310
C 5.016020 11.081490 -7.014990
C 4.294250 8.450170 -10.180770
C 5.537010 12.516030 -7.134690
C -3.948260 8.047370 -0.982750
C -2.462690 8.108690 -1.028130
C -4.679780 9.116470 -0.213580
C -1.711290 7.093030 -1.970130
C -4.205230 9.291860 1.252920
C -0.452350 6.517990 -1.285120
C 11.832370 -5.326760 15.411510
C 10.551220 -6.019300 14.926690
C 11.626100 -4.536550 16.654310
C 10.569110 -5.909310 13.445120
C 11.202690 -5.481710 17.774780
C 9.257810 -6.425200 12.816920
C -12.399800 -9.835660 -7.278820
C -11.884980 -8.466360 -7.455410
C -12.150730 -10.827430 -8.418820
C -10.391080 -8.405090 -7.416520
C -12.554190 -12.132530 -7.830030
C -10.060630 -6.896570 -7.409980
C 14.586660 8.947920 7.647080
C 13.320390 9.271220 8.338350
C 14.521660 7.672830 6.822490
C 13.041150 8.209710 9.440150
C 15.825320 7.447710 6.049110
C 11.560600 8.136140 9.883550
C -12.608770 -4.418870 -4.450500
C -12.964550 -4.265410 -3.028790
C -13.915190 -4.401330 -5.186270
C -11.759050 -3.911330 -2.082280
C -13.708250 -5.359730 -6.349250
C -12.269940 -3.806240 -0.633220
C 3.519740 -8.342720 10.242850
C 4.736540 -7.455790 9.861300
C 3.845290 -9.283830 11.399070
C 4.499880 -6.932240 8.520830
C 2.527310 -9.983340 11.901970
C 5.573990 -5.951300 7.989000
C -12.783270 7.649040 -14.734640
C -13.018960 6.710350 -13.550310
C -14.007340 8.083720 -15.383310
C -11.791050 6.472610 -12.689910
C -13.767830 9.180020 -16.437930
C -11.968130 5.862090 -11.307150
C 2.210790 11.046600 15.518660
C 0.758390 10.887660 16.053670
C 2.843430 12.352860 15.701510
C -0.481580 11.412140 15.355320
C 4.342210 12.315300 15.120600
C -1.568970 11.043200 16.329990
C 10.843950 -9.557370 1.259700
C 9.483600 -9.797350 0.775640
C 11.861180 -10.263990 0.411570
C 8.369850 -9.274770 1.598850
C 13.338560 -10.323790 0.979560
C 7.046000 -9.203380 0.795030
C 8.276110 2.880000 -13.946140
C 8.067120 2.395180 -15.391360
C 9.544850 3.706790 -13.781150
C 9.217950 1.532120 -15.882370
C 9.506650 4.537690 -12.455940
C 8.881620 0.728050 -17.101530
C -2.552690 -14.689510 9.587670
C -3.370910 -15.832580 10.186830
C -3.242160 -13.327680 9.918010
C -4.758180 -15.981440 9.634290
C -2.413070 -12.199190 9.338450
C -5.586050 -14.766600 10.002570
C -10.804730 12.981020 -12.922730
C -9.875110 13.183040 -11.711000
C -11.276950 11.519950 -13.252530
C -8.691250 12.275050 -11.818430
C -11.952360 10.673710 -12.166490
C -9.215000 10.806460 -11.692120
C -14.984510 13.859960 -1.342050
C -14.260020 15.147140 -1.740720
C -15.733980 14.079210 -0.018290
C -13.429450 15.729670 -0.587910
C -16.470440 12.823420 0.418710
C -12.980250 17.071790 -0.984120
C -9.457730 -5.541720 5.780150
C -10.545260 -6.350330 5.141300
C -9.733900 -5.587150 7.305380
C -10.153610 -6.654310 3.729650
C -8.527500 -5.161370 8.188170
C -11.119760 -7.659900 3.114370
C -9.094020 -14.583580 3.126780
C -9.649250 -13.185480 3.242240
C -10.048510 -15.549390 2.424630
C -8.809420 -12.292550 4.139990
C -11.293610 -15.764280 3.186600
C -9.277010 -10.831140 4.203300
C -0.800490 7.911110 8.979310
C -1.880970 8.475510 8.025920
C -0.486820 8.797180 10.247910
C -1.544270 9.899240 7.464110
C -1.812880 9.031730 10.974230
C -1.150680 10.909850 8.598770
C -3.307060 -8.409000 12.827150
C -2.884110 -8.105790 14.235110
C -3.479860 -9.863490 12.539890
C -2.725860 -6.569430 14.512480
C -4.239910 -10.542010 13.627300
C -2.642450 -6.252340 16.025100
C 5.635780 -0.773620 -4.793950
C 6.889230 -1.321130 -4.285260
C 4.776640 -0.622410 -3.507020
C 7.827660 -1.784870 -5.411310
C 3.453750 0.199410 -3.699690
C 7.460390 -3.123800 -6.105860
C 8.788030 -2.740230 12.632700
C 9.298450 -2.909110 11.191300
C 9.631880 -1.875050 13.505890
C 8.260580 -3.557820 10.318050
C 9.092640 -1.930110 14.886940
C 8.680160 -3.492820 8.895870
C -10.710460 10.553500 -0.446250
C -11.045690 9.204090 -0.951630
C -11.380910 10.827460 0.887250
C -10.330060 8.884380 -2.222380
C -12.839190 10.980050 0.651150
C -11.184360 9.334330 -3.361440
C -8.438710 -2.661130 1.032480
C -7.022640 -2.103310 0.628740
C -8.220800 -4.222130 1.247460
C -6.092280 -1.898390 1.804660
C -7.322780 -4.470350 2.458100
C -6.701580 -0.954070 2.838470
C -8.523560 -15.517290 -2.513910
C -9.518660 -14.539890 -2.970320
C -9.133020 -16.240100 -1.310570
C -9.118490 -13.476690 -3.991430
C -9.955320 -17.435590 -1.679310
C -10.318770 -12.700300 -4.603820
C -11.048370 -12.817630 -11.783380
C -12.013400 -13.979760 -12.198240
C -10.856800 -11.644040 -12.783960
C -13.418800 -13.497780 -12.592050
C -10.019310 -10.385820 -12.381360
C -14.401900 -13.916270 -11.390550
C 12.668650 15.081700 -12.387030
C 14.059880 14.726230 -11.818470
C 11.805220 14.040530 -13.045930
C 15.114410 14.359470 -12.884430
C 10.520100 14.644470 -13.698850
C 16.379030 13.824290 -12.191600
C 0.558150 -12.792550 0.622240
C 2.026160 -12.316770 0.390180
C 0.432050 -13.207330 2.106500
C 2.403860 -12.122710 -1.034100
C -0.588360 -14.337040 2.203000
C 3.857440 -11.715090 -1.179550
C 6.709370 -11.933960 10.928830
C 7.074260 -13.184410 10.092870
C 7.917760 -11.489980 11.725890
C 6.297870 -13.187220 8.746580
C 7.562900 -10.263530 12.551490
C 6.609730 -14.393550 7.762560
C -14.972750 4.941560 -6.700630
C -14.352610 3.555600 -6.914810
C -14.047430 5.672410 -5.704890
C -12.856440 3.696020 -7.438540
C -14.757170 6.867220 -5.084680
C -11.908890 4.501400 -6.555390
C -12.363360 9.727390 9.287880
C -11.278210 8.733760 8.937940
C -13.256530 9.118610 10.418820
C -10.441580 8.233450 10.140770
C -14.126030 10.257050 10.732300
C -9.302410 7.313240 9.609820
C 8.819830 -7.838090 -7.994730
C 7.701450 -7.052310 -8.645370
C 8.754400 -9.285520 -8.553790
C 7.868650 -5.631840 -8.951720
C 9.805280 -10.171410 -7.892360
C 6.792230 -5.203540 -9.886010
