630
                   
O -18.521330 -19.486900 2.551530
Si -18.521330 -19.486900 1.020600
H -18.511330 -19.476900 3.508730
O -13.521330 -19.486900 2.551530
Si -13.521330 -19.486900 1.020600
H -13.511330 -19.476900 3.508730
O -8.521330 -19.486900 2.551530
Si -8.521330 -19.486900 1.020600
H -8.511330 -19.476900 3.508730
O -3.521330 -19.486900 2.551530
Si -3.521330 -19.486900 1.020600
H -3.511330 -19.476900 3.508730
O 1.478670 -19.486900 2.551530
Si 1.478670 -19.486900 1.020600
H 1.488670 -19.476900 3.508730
O 6.478670 -19.486900 2.551530
Si 6.478670 -19.486900 1.020600
H 6.488670 -19.476900 3.508730
O 11.478670 -19.486900 2.551530
Si 11.478670 -19.486900 1.020600
H 11.488670 -19.476900 3.508730
O 16.478670 -19.486900 2.551530
Si 16.478670 -19.486900 1.020600
H 16.488670 -19.476900 3.508730
O 21.478670 -19.486900 2.551530
Si 21.478670 -19.486900 1.020600
H 21.488670 -19.476900 3.508730
O -21.021330 -15.156800 2.551530
Si -21.021330 -15.156800 1.020600
H -21.011330 -15.146800 3.508730
O -16.021330 -15.156800 2.551530
Si -16.021330 -15.156800 1.020600
H -16.011330 -15.146800 3.508730
O -11.021330 -15.156800 2.551530
Si -11.021330 -15.156800 1.020600
H -11.011330 -15.146800 3.508730
O -6.021330 -15.156800 2.551530
Si -6.021330 -15.156800 1.020600
H -6.011330 -15.146800 3.508730
O -1.021330 -15.156800 2.551530
Si -1.021330 -15.156800 1.020600
H -1.011330 -15.146800 3.508730
O 3.978670 -15.156800 2.551530
Si 3.978670 -15.156800 1.020600
H 3.988670 -15.146800 3.508730
O 8.978670 -15.156800 2.551530
Si 8.978670 -15.156800 1.020600
H 8.988670 -15.146800 3.508730
O 13.978670 -15.156800 2.551530
Si 13.978670 -15.156800 1.020600
H 13.988670 -15.146800 3.508730
O 18.978670 -15.156800 2.551530
Si 18.978670 -15.156800 1.020600
H 18.988670 -15.146800 3.508730
O -18.521330 -10.826700 2.551530
Si -18.521330 -10.826700 1.020600
H -18.511330 -10.816700 3.508730
O -13.521330 -10.826700 2.551530
Si -13.521330 -10.826700 1.020600
H -13.511330 -10.816700 3.508730
O -8.521330 -10.826700 2.551530
Si -8.521330 -10.826700 1.020600
H -8.511330 -10.816700 3.508730
O -3.521330 -10.826700 2.551530
Si -3.521330 -10.826700 1.020600
H -3.511330 -10.816700 3.508730
O 1.478670 -10.826700 2.551530
Si 1.478670 -10.826700 1.020600
H 1.488670 -10.816700 3.508730
O 6.478670 -10.826700 2.551530
Si 6.478670 -10.826700 1.020600
H 6.488670 -10.816700 3.508730
O 11.478670 -10.826700 2.551530
Si 11.478670 -10.826700 1.020600
H 11.488670 -10.816700 3.508730
O 16.478670 -10.826700 2.551530
Si 16.478670 -10.826700 1.020600
H 16.488670 -10.816700 3.508730
O 21.478670 -10.826700 2.551530
Si 21.478670 -10.826700 1.020600
H 21.488670 -10.816700 3.508730
O -21.021330 -6.496600 2.551530
Si -21.021330 -6.496600 1.020600
H -21.011330 -6.486600 3.508730
O -16.021330 -6.496600 2.551530
Si -16.021330 -6.496600 1.020600
H -16.011330 -6.486600 3.508730
O -11.021330 -6.496600 2.551530
Si -11.021330 -6.496600 1.020600
H -11.011330 -6.486600 3.508730
O -6.021330 -6.496600 2.551530
Si -6.021330 -6.496600 1.020600
H -6.011330 -6.486600 3.508730
O -1.021330 -6.496600 2.551530
Si -1.021330 -6.496600 1.020600
H -1.011330 -6.486600 3.508730
O 3.978670 -6.496600 2.551530
Si 3.978670 -6.496600 1.020600
H 3.988670 -6.486600 3.508730
O 8.978670 -6.496600 2.551530
Si 8.978670 -6.496600 1.020600
H 8.988670 -6.486600 3.508730
O 13.978670 -6.496600 2.551530
Si 13.978670 -6.496600 1.020600
H 13.988670 -6.486600 3.508730
O 18.978670 -6.496600 2.551530
Si 18.978670 -6.496600 1.020600
H 18.988670 -6.486600 3.508730
O -18.521330 -2.166500 2.551530
Si -18.521330 -2.166500 1.020600
H -18.511330 -2.156500 3.508730
O -13.521330 -2.166500 2.551530
Si -13.521330 -2.166500 1.020600
H -13.511330 -2.156500 3.508730
O -8.521330 -2.166500 2.551530
Si -8.521330 -2.166500 1.020600
H -8.511330 -2.156500 3.508730
O -3.521330 -2.166500 2.551530
Si -3.521330 -2.166500 1.020600
H -3.511330 -2.156500 3.508730
O 1.478670 -2.166500 2.551530
Si 1.478670 -2.166500 1.020600
H 1.488670 -2.156500 3.508730
O 6.478670 -2.166500 2.551530
Si 6.478670 -2.166500 1.020600
H 6.488670 -2.156500 3.508730
O 11.478670 -2.166500 2.551530
Si 11.478670 -2.166500 1.020600
H 11.488670 -2.156500 3.508730
O 16.478670 -2.166500 2.551530
Si 16.478670 -2.166500 1.020600
H 16.488670 -2.156500 3.508730
O 21.478670 -2.166500 2.551530
Si 21.478670 -2.166500 1.020600
H 21.488670 -2.156500 3.508730
O -21.021330 2.163600 2.551530
Si -21.021330 2.163600 1.020600
H -21.011330 2.173600 3.508730
O -16.021330 2.163600 2.551530
Si -16.021330 2.163600 1.020600
H -16.011330 2.173600 3.508730
O -11.021330 2.163600 2.551530
Si -11.021330 2.163600 1.020600
H -11.011330 2.173600 3.508730
O -6.021330 2.163600 2.551530
Si -6.021330 2.163600 1.020600
H -6.011330 2.173600 3.508730
O -1.021330 2.163600 2.551530
Si -1.021330 2.163600 1.020600
H -1.011330 2.173600 3.508730
O 3.978670 2.163600 2.551530
Si 3.978670 2.163600 1.020600
H 3.988670 2.173600 3.508730
O 8.978670 2.163600 2.551530
Si 8.978670 2.163600 1.020600
H 8.988670 2.173600 3.508730
O 13.978670 2.163600 2.551530
Si 13.978670 2.163600 1.020600
H 13.988670 2.173600 3.508730
O 18.978670 2.163600 2.551530
Si 18.978670 2.163600 1.020600
H 18.988670 2.173600 3.508730
O -18.521330 6.493700 2.551530
Si -18.521330 6.493700 1.020600
H -18.511330 6.503700 3.508730
O -13.521330 6.493700 2.551530
Si -13.521330 6.493700 1.020600
H -13.511330 6.503700 3.508730
O -8.521330 6.493700 2.551530
Si -8.521330 6.493700 1.020600
H -8.511330 6.503700 3.508730
O -3.521330 6.493700 2.551530
Si -3.521330 6.493700 1.020600
H -3.511330 6.503700 3.508730
O 1.478670 6.493700 2.551530
Si 1.478670 6.493700 1.020600
H 1.488670 6.503700 3.508730
O 6.478670 6.493700 2.551530
Si 6.478670 6.493700 1.020600
H 6.488670 6.503700 3.508730
O 11.478670 6.493700 2.551530
Si 11.478670 6.493700 1.020600
H 11.488670 6.503700 3.508730
O 16.478670 6.493700 2.551530
Si 16.478670 6.493700 1.020600
H 16.488670 6.503700 3.508730
O 21.478670 6.493700 2.551530
Si 21.478670 6.493700 1.020600
H 21.488670 6.503700 3.508730
O -21.021330 10.823800 2.551530
Si -21.021330 10.823800 1.020600
H -21.011330 10.833800 3.508730
O -16.021330 10.823800 2.551530
Si -16.021330 10.823800 1.020600
H -16.011330 10.833800 3.508730
O -11.021330 10.823800 2.551530
Si -11.021330 10.823800 1.020600
H -11.011330 10.833800 3.508730
O -6.021330 10.823800 2.551530
Si -6.021330 10.823800 1.020600
H -6.011330 10.833800 3.508730
O -1.021330 10.823800 2.551530
Si -1.021330 10.823800 1.020600
H -1.011330 10.833800 3.508730
O 3.978670 10.823800 2.551530
Si 3.978670 10.823800 1.020600
H 3.988670 10.833800 3.508730
O 8.978670 10.823800 2.551530
Si 8.978670 10.823800 1.020600
H 8.988670 10.833800 3.508730
O 13.978670 10.823800 2.551530
Si 13.978670 10.823800 1.020600
H 13.988670 10.833800 3.508730
O 18.978670 10.823800 2.551530
Si 18.978670 10.823800 1.020600
H 18.988670 10.833800 3.508730
O -18.521330 15.153900 2.551530
Si -18.521330 15.153900 1.020600
H -18.511330 15.163900 3.508730
O -13.521330 15.153900 2.551530
Si -13.521330 15.153900 1.020600
H -13.511330 15.163900 3.508730
O -8.521330 15.153900 2.551530
Si -8.521330 15.153900 1.020600
H -8.511330 15.163900 3.508730
O -3.521330 15.153900 2.551530
Si -3.521330 15.153900 1.020600
H -3.511330 15.163900 3.508730
O 1.478670 15.153900 2.551530
Si 1.478670 15.153900 1.020600
H 1.488670 15.163900 3.508730
O 6.478670 15.153900 2.551530
Si 6.478670 15.153900 1.020600
H 6.488670 15.163900 3.508730
O 11.478670 15.153900 2.551530
Si 11.478670 15.153900 1.020600
H 11.488670 15.163900 3.508730
O 16.478670 15.153900 2.551530
Si 16.478670 15.153900 1.020600
H 16.488670 15.163900 3.508730
O 21.478670 15.153900 2.551530
Si 21.478670 15.153900 1.020600
H 21.488670 15.163900 3.508730
O -21.021330 19.484000 2.551530
Si -21.021330 19.484000 1.020600
H -21.011330 19.494000 3.508730
O -16.021330 19.484000 2.551530
Si -16.021330 19.484000 1.020600
H -16.011330 19.494000 3.508730
O -11.021330 19.484000 2.551530
Si -11.021330 19.484000 1.020600
H -11.011330 19.494000 3.508730
O -6.021330 19.484000 2.551530
Si -6.021330 19.484000 1.020600
H -6.011330 19.494000 3.508730
O -1.021330 19.484000 2.551530
Si -1.021330 19.484000 1.020600
H -1.011330 19.494000 3.508730
O 3.978670 19.484000 2.551530
Si 3.978670 19.484000 1.020600
H 3.988670 19.494000 3.508730
O 8.978670 19.484000 2.551530
Si 8.978670 19.484000 1.020600
H 8.988670 19.494000 3.508730
O 13.978670 19.484000 2.551530
Si 13.978670 19.484000 1.020600
H 13.988670 19.494000 3.508730
O 18.978670 19.484000 2.551530
Si 18.978670 19.484000 1.020600
H 18.988670 19.494000 3.508730
Si -21.021330 -20.929300 0.000000
Si -16.021330 -20.929300 0.000000
Si -11.021330 -20.929300 0.000000
Si -6.021330 -20.929300 0.000000
Si -1.021330 -20.929300 0.000000
Si 3.978670 -20.929300 0.000000
Si 8.978670 -20.929300 0.000000
Si 13.978670 -20.929300 0.000000
Si 18.978670 -20.929300 0.000000
Si -18.521330 -16.599200 0.000000
Si -13.521330 -16.599200 0.000000
Si -8.521330 -16.599200 0.000000
Si -3.521330 -16.599200 0.000000
Si 1.478670 -16.599200 0.000000
Si 6.478670 -16.599200 0.000000
Si 11.478670 -16.599200 0.000000
Si 16.478670 -16.599200 0.000000
Si 21.478670 -16.599200 0.000000
Si -21.021330 -12.269100 0.000000
Si -16.021330 -12.269100 0.000000
Si -11.021330 -12.269100 0.000000
Si -6.021330 -12.269100 0.000000
Si -1.021330 -12.269100 0.000000
Si 3.978670 -12.269100 0.000000
Si 8.978670 -12.269100 0.000000
Si 13.978670 -12.269100 0.000000
Si 18.978670 -12.269100 0.000000
Si -18.521330 -7.939000 0.000000
Si -13.521330 -7.939000 0.000000
Si -8.521330 -7.939000 0.000000
Si -3.521330 -7.939000 0.000000
Si 1.478670 -7.939000 0.000000
Si 6.478670 -7.939000 0.000000
Si 11.478670 -7.939000 0.000000
Si 16.478670 -7.939000 0.000000
Si 21.478670 -7.939000 0.000000
Si -21.021330 -3.608900 0.000000
Si -16.021330 -3.608900 0.000000
Si -11.021330 -3.608900 0.000000
Si -6.021330 -3.608900 0.000000
Si -1.021330 -3.608900 0.000000
Si 3.978670 -3.608900 0.000000
Si 8.978670 -3.608900 0.000000
Si 13.978670 -3.608900 0.000000
Si 18.978670 -3.608900 0.000000
Si -18.521330 0.721200 0.000000
Si -13.521330 0.721200 0.000000
Si -8.521330 0.721200 0.000000
Si -3.521330 0.721200 0.000000
Si 1.478670 0.721200 0.000000
Si 6.478670 0.721200 0.000000
Si 11.478670 0.721200 0.000000
Si 16.478670 0.721200 0.000000
Si 21.478670 0.721200 0.000000
Si -21.021330 5.051300 0.000000
Si -16.021330 5.051300 0.000000
Si -11.021330 5.051300 0.000000
Si -6.021330 5.051300 0.000000
Si -1.021330 5.051300 0.000000
Si 3.978670 5.051300 0.000000
Si 8.978670 5.051300 0.000000
Si 13.978670 5.051300 0.000000
Si 18.978670 5.051300 0.000000
Si -18.521330 9.381400 0.000000
Si -13.521330 9.381400 0.000000
Si -8.521330 9.381400 0.000000
Si -3.521330 9.381400 0.000000
Si 1.478670 9.381400 0.000000
Si 6.478670 9.381400 0.000000
Si 11.478670 9.381400 0.000000
Si 16.478670 9.381400 0.000000
Si 21.478670 9.381400 0.000000
Si -21.021330 13.711500 0.000000
Si -16.021330 13.711500 0.000000
Si -11.021330 13.711500 0.000000
Si -6.021330 13.711500 0.000000
Si -1.021330 13.711500 0.000000
Si 3.978670 13.711500 0.000000
Si 8.978670 13.711500 0.000000
Si 13.978670 13.711500 0.000000
Si 18.978670 13.711500 0.000000
Si -18.521330 18.041600 0.000000
Si -13.521330 18.041600 0.000000
Si -8.521330 18.041600 0.000000
Si -3.521330 18.041600 0.000000
Si 1.478670 18.041600 0.000000
Si 6.478670 18.041600 0.000000
Si 11.478670 18.041600 0.000000
Si 16.478670 18.041600 0.000000
Si 21.478670 18.041600 0.000000
O -17.500100 -20.341170 0.136360
O -12.500110 -20.341170 0.136360
O -7.500110 -20.341170 0.136360
O -2.500100 -20.341170 0.136360
O 2.499900 -20.341170 0.136360
O 7.499900 -20.341170 0.136360
O 12.499900 -20.341170 0.136360
O 17.499900 -20.341170 0.136360
O 22.499900 -20.341170 0.136360
O -20.000100 -16.011070 0.136360
O -15.000100 -16.011070 0.136360
O -10.000110 -16.011070 0.136360
O -5.000100 -16.011070 0.136360
O -0.000100 -16.011070 0.136360
O 4.999900 -16.011070 0.136360
O 9.999900 -16.011070 0.136360
O 14.999900 -16.011070 0.136360
O 19.999900 -16.011070 0.136360
O -17.500100 -11.680970 0.136360
O -12.500110 -11.680970 0.136360
O -7.500110 -11.680970 0.136360
O -2.500100 -11.680970 0.136360
O 2.499900 -11.680970 0.136360
O 7.499900 -11.680970 0.136360
O 12.499900 -11.680970 0.136360
O 17.499900 -11.680970 0.136360
O 22.499900 -11.680970 0.136360
O -20.000100 -7.350870 0.136360
O -15.000100 -7.350870 0.136360
O -10.000110 -7.350870 0.136360
O -5.000100 -7.350870 0.136360
O -0.000100 -7.350870 0.136360
O 4.999900 -7.350870 0.136360
O 9.999900 -7.350870 0.136360
O 14.999900 -7.350870 0.136360
O 19.999900 -7.350870 0.136360
O -17.500100 -3.020770 0.136360
O -12.500110 -3.020770 0.136360
O -7.500110 -3.020770 0.136360
O -2.500100 -3.020770 0.136360
O 2.499900 -3.020770 0.136360
O 7.499900 -3.020770 0.136360
O 12.499900 -3.020770 0.136360
O 17.499900 -3.020770 0.136360
O 22.499900 -3.020770 0.136360
O -20.000100 1.309330 0.136360
O -15.000100 1.309330 0.136360
O -10.000110 1.309330 0.136360
O -5.000100 1.309330 0.136360
O -0.000100 1.309330 0.136360
O 4.999900 1.309330 0.136360
O 9.999900 1.309330 0.136360
O 14.999900 1.309330 0.136360
O 19.999900 1.309330 0.136360
O -17.500100 5.639430 0.136360
O -12.500110 5.639430 0.136360
O -7.500110 5.639430 0.136360
O -2.500100 5.639430 0.136360
O 2.499900 5.639430 0.136360
O 7.499900 5.639430 0.136360
O 12.499900 5.639430 0.136360
O 17.499900 5.639430 0.136360
O 22.499900 5.639430 0.136360
O -20.000100 9.969530 0.136360
O -15.000100 9.969530 0.136360
O -10.000110 9.969530 0.136360
O -5.000100 9.969530 0.136360
O -0.000100 9.969530 0.136360
O 4.999900 9.969530 0.136360
O 9.999900 9.969530 0.136360
O 14.999900 9.969530 0.136360
O 19.999900 9.969530 0.136360
O -17.500100 14.299630 0.136360
O -12.500110 14.299630 0.136360
O -7.500110 14.299630 0.136360
O -2.500100 14.299630 0.136360
O 2.499900 14.299630 0.136360
O 7.499900 14.299630 0.136360
O 12.499900 14.299630 0.136360
O 17.499900 14.299630 0.136360
O 22.499900 14.299630 0.136360
O -20.000100 18.629730 0.136360
O -15.000100 18.629730 0.136360
O -10.000110 18.629730 0.136360
O -5.000100 18.629730 0.136360
O -0.000100 18.629730 0.136360
O 4.999900 18.629730 0.136360
O 9.999900 18.629730 0.136360
O 14.999900 18.629730 0.136360
O 19.999900 18.629730 0.136360
O -18.291180 -17.911380 0.884270
O -13.291180 -17.911380 0.884270
O -8.291180 -17.911380 0.884270
O -3.291180 -17.911380 0.884270
O 1.708820 -17.911380 0.884270
O 6.708820 -17.911380 0.884270
O 11.708820 -17.911380 0.884270
O 16.708820 -17.911380 0.884270
O 21.708820 -17.911380 0.884270
O -20.791180 -13.581280 0.884270
O -15.791180 -13.581280 0.884270
O -10.791180 -13.581280 0.884270
O -5.791180 -13.581280 0.884270
O -0.791180 -13.581280 0.884270
O 4.208820 -13.581280 0.884270
O 9.208820 -13.581280 0.884270
O 14.208820 -13.581280 0.884270
O 19.208820 -13.581280 0.884270
O -18.291180 -9.251180 0.884270
O -13.291180 -9.251180 0.884270
O -8.291180 -9.251180 0.884270
O -3.291180 -9.251180 0.884270
O 1.708820 -9.251180 0.884270
O 6.708820 -9.251180 0.884270
O 11.708820 -9.251180 0.884270
O 16.708820 -9.251180 0.884270
O 21.708820 -9.251180 0.884270
O -20.791180 -4.921080 0.884270
O -15.791180 -4.921080 0.884270
O -10.791180 -4.921080 0.884270
O -5.791180 -4.921080 0.884270
O -0.791180 -4.921080 0.884270
O 4.208820 -4.921080 0.884270
O 9.208820 -4.921080 0.884270
O 14.208820 -4.921080 0.884270
O 19.208820 -4.921080 0.884270
O -18.291180 -0.590980 0.884270
O -13.291180 -0.590980 0.884270
O -8.291180 -0.590980 0.884270
O -3.291180 -0.590980 0.884270
O 1.708820 -0.590980 0.884270
O 6.708820 -0.590980 0.884270
O 11.708820 -0.590980 0.884270
O 16.708820 -0.590980 0.884270
O 21.708820 -0.590980 0.884270
O -20.791180 3.739120 0.884270
O -15.791180 3.739120 0.884270
O -10.791180 3.739120 0.884270
O -5.791180 3.739120 0.884270
O -0.791180 3.739120 0.884270
O 4.208820 3.739120 0.884270
O 9.208820 3.739120 0.884270
O 14.208820 3.739120 0.884270
O 19.208820 3.739120 0.884270
O -18.291180 8.069220 0.884270
O -13.291180 8.069220 0.884270
O -8.291180 8.069220 0.884270
O -3.291180 8.069220 0.884270
O 1.708820 8.069220 0.884270
O 6.708820 8.069220 0.884270
O 11.708820 8.069220 0.884270
O 16.708820 8.069220 0.884270
O 21.708820 8.069220 0.884270
O -20.791180 12.399320 0.884270
O -15.791180 12.399320 0.884270
O -10.791180 12.399320 0.884270
O -5.791180 12.399320 0.884270
O -0.791180 12.399320 0.884270
O 4.208820 12.399320 0.884270
O 9.208820 12.399320 0.884270
O 14.208820 12.399320 0.884270
O 19.208820 12.399320 0.884270
O -18.291180 16.729420 0.884270
O -13.291180 16.729420 0.884270
O -8.291180 16.729420 0.884270
O -3.291180 16.729420 0.884270
O 1.708820 16.729420 0.884270
O 6.708820 16.729420 0.884270
O 11.708820 16.729420 0.884270
O 16.708820 16.729420 0.884270
O 21.708820 16.729420 0.884270
O -20.791180 21.059520 0.884270
O -15.791180 21.059520 0.884270
O -10.791180 21.059520 0.884270
O -5.791180 21.059520 0.884270
O -0.791180 21.059520 0.884270
O 4.208820 21.059520 0.884270
O 9.208820 21.059520 0.884270
O 14.208820 21.059520 0.884270
O 19.208820 21.059520 0.884270
O -19.999900 -19.811360 0.510310
O -14.999900 -19.811360 0.510310
O -9.999900 -19.811360 0.510310
O -4.999900 -19.811360 0.510310
O 0.000100 -19.811360 0.510310
O 5.000100 -19.811360 0.510310
O 10.000100 -19.811360 0.510310
O 15.000100 -19.811360 0.510310
O 20.000100 -19.811360 0.510310
O -22.499900 -15.481260 0.510310
O -17.499900 -15.481260 0.510310
O -12.499900 -15.481260 0.510310
O -7.499900 -15.481260 0.510310
O -2.499900 -15.481260 0.510310
O 2.500100 -15.481260 0.510310
O 7.500100 -15.481260 0.510310
O 12.500100 -15.481260 0.510310
O 17.500100 -15.481260 0.510310
O -19.999900 -11.151160 0.510310
O -14.999900 -11.151160 0.510310
O -9.999900 -11.151160 0.510310
O -4.999900 -11.151160 0.510310
O 0.000100 -11.151160 0.510310
O 5.000100 -11.151160 0.510310
O 10.000100 -11.151160 0.510310
O 15.000100 -11.151160 0.510310
O 20.000100 -11.151160 0.510310
O -22.499900 -6.821060 0.510310
O -17.499900 -6.821060 0.510310
O -12.499900 -6.821060 0.510310
O -7.499900 -6.821060 0.510310
O -2.499900 -6.821060 0.510310
O 2.500100 -6.821060 0.510310
O 7.500100 -6.821060 0.510310
O 12.500100 -6.821060 0.510310
O 17.500100 -6.821060 0.510310
O -19.999900 -2.490960 0.510310
O -14.999900 -2.490960 0.510310
O -9.999900 -2.490960 0.510310
O -4.999900 -2.490960 0.510310
O 0.000100 -2.490960 0.510310
O 5.000100 -2.490960 0.510310
O 10.000100 -2.490960 0.510310
O 15.000100 -2.490960 0.510310
O 20.000100 -2.490960 0.510310
O -22.499900 1.839140 0.510310
O -17.499900 1.839140 0.510310
O -12.499900 1.839140 0.510310
O -7.499900 1.839140 0.510310
O -2.499900 1.839140 0.510310
O 2.500100 1.839140 0.510310
O 7.500100 1.839140 0.510310
O 12.500100 1.839140 0.510310
O 17.500100 1.839140 0.510310
O -19.999900 6.169240 0.510310
O -14.999900 6.169240 0.510310
O -9.999900 6.169240 0.510310
O -4.999900 6.169240 0.510310
O 0.000100 6.169240 0.510310
O 5.000100 6.169240 0.510310
O 10.000100 6.169240 0.510310
O 15.000100 6.169240 0.510310
O 20.000100 6.169240 0.510310
O -22.499900 10.499340 0.510310
O -17.499900 10.499340 0.510310
O -12.499900 10.499340 0.510310
O -7.499900 10.499340 0.510310
O -2.499900 10.499340 0.510310
O 2.500100 10.499340 0.510310
O 7.500100 10.499340 0.510310
O 12.500100 10.499340 0.510310
O 17.500100 10.499340 0.510310
O -19.999900 14.829440 0.510310
O -14.999900 14.829440 0.510310
O -9.999900 14.829440 0.510310
O -4.999900 14.829440 0.510310
O 0.000100 14.829440 0.510310
O 5.000100 14.829440 0.510310
O 10.000100 14.829440 0.510310
O 15.000100 14.829440 0.510310
O 20.000100 14.829440 0.510310
O -22.499900 19.159540 0.510310
O -17.499900 19.159540 0.510310
O -12.499900 19.159540 0.510310
O -7.499900 19.159540 0.510310
O -2.499900 19.159540 0.510310
O 2.500100 19.159540 0.510310
O 7.500100 19.159540 0.510310
O 12.500100 19.159540 0.510310
O 17.500100 19.159540 0.510310
